
OS:Version,
  {1237733d-a64a-4df9-bcef-15f4da5f9d37}, !- Handle
  3.1.0;                                  !- Version Identifier

OS:Site,
  {d89d3a2c-a59d-4019-a9c8-f5b9dbc25d7f}, !- Handle
  Washington Dc Dulles IntL Ar,           !- Name
  38.98,                                  !- Latitude {deg}
  -77.47,                                 !- Longitude {deg}
  -5,                                     !- Time Zone {hr}
  82,                                     !- Elevation {m}
  Suburbs;                                !- Terrain

OS:SimulationControl,
  {86fddf91-012c-4c39-b679-e74e65938ef6}, !- Handle
  Yes,                                    !- Do Zone Sizing Calculation
  Yes,                                    !- Do System Sizing Calculation
  No,                                     !- Do Plant Sizing Calculation
  Yes,                                    !- Run Simulation for Sizing Periods
  Yes,                                    !- Run Simulation for Weather File Run Periods
  0.04,                                   !- Loads Convergence Tolerance Value {W}
  0.4,                                    !- Temperature Convergence Tolerance Value {deltaC}
  FullExterior,                           !- Solar Distribution
  25,                                     !- Maximum Number of Warmup Days
  6;                                      !- Minimum Number of Warmup Days

OS:Surface,
  {dec967b2-537c-4dd1-baa1-5c5885b69309}, !- Handle
  Inter zone floor 1,                     !- Name
  Floor,                                  !- Surface Type
  {43d160df-319f-41c2-a4e1-84174b8aaee0}, !- Construction Name
  {7ef7b0ee-9188-470f-b5c3-c9cf78424d54}, !- Space Name
  Adiabatic,                              !- Outside Boundary Condition
  ,                                       !- Outside Boundary Condition Object
  NoSun,                                  !- Sun Exposure
  NoWind,                                 !- Wind Exposure
  0,                                      !- View Factor to Ground
  ,                                       !- Number of Vertices
  12.1330909462833, 9.09981820971244, 2.74390243902439, !- X,Y,Z Vertex 1 {m}
  12.1330909462833, 0, 2.74390243902439,  !- X,Y,Z Vertex 2 {m}
  0, 0, 2.74390243902439,                 !- X,Y,Z Vertex 3 {m}
  0, 9.09981820971244, 2.74390243902439;  !- X,Y,Z Vertex 4 {m}

OS:Construction,
  {43d160df-319f-41c2-a4e1-84174b8aaee0}, !- Handle
  Interior Floor,                         !- Name
  {03e036f9-ec53-4036-aeac-5faa8f318b47}, !- Surface Rendering Name
  {2ee1ac5b-5293-4b0d-a58f-2676c000760d}, !- Layer 1
  {3eb2d678-95e3-4998-b820-239c3a8642f2}, !- Layer 2
  {26aa2ffc-0359-45be-86f9-b48ba7cd6dfb}; !- Layer 3

OS:Material,
  {3eb2d678-95e3-4998-b820-239c3a8642f2}, !- Handle
  Plywood_3/4in,                          !- Name
  Rough,                                  !- Roughness
  0.01905,                                !- Thickness {m}
  0.1154577,                              !- Conductivity {W/m-K}
  544.68,                                 !- Density {kg/m3}
  674.54,                                 !- Specific Heat {J/kg-K}
  0.9,                                    !- Thermal Absorptance
  0.7,                                    !- Solar Absorptance
  0.7;                                    !- Visible Absorptance

OS:Material,
  {26aa2ffc-0359-45be-86f9-b48ba7cd6dfb}, !- Handle
  Carpet_n_pad,                           !- Name
  MediumSmooth,                           !- Roughness
  0.0254000514892096,                     !- Thickness {m}
  0.0601314018580031,                     !- Conductivity {W/m-K}
  32.03690584178,                         !- Density {kg/m3}
  836.800006332062,                       !- Specific Heat {J/kg-K}
  0.9,                                    !- Thermal Absorptance
  0.7,                                    !- Solar Absorptance
  0.7;                                    !- Visible Absorptance

OS:ThermalZone,
  {5db26737-f6a1-4cbd-a61d-77028c5ad4b9}, !- Handle
  living_unit1 Thermal Zone,              !- Name
  1,                                      !- Multiplier
  ,                                       !- Ceiling Height {m}
  ,                                       !- Volume {m3}
  ,                                       !- Floor Area {m2}
  Simple,                                 !- Zone Inside Convection Algorithm
  SimpleCombined,                         !- Zone Outside Convection Algorithm
  ,                                       !- Zone Conditioning Equipment List Name
  {e738ee87-bff5-463c-b905-2922780d8b1a}, !- Zone Air Inlet Port List
  {3c96e553-db2f-4a1f-991f-e684d4a6bc3f}, !- Zone Air Exhaust Port List
  {9dad43f0-e406-4e88-9dc3-09c86fcbed95}, !- Zone Air Node Name
  {17647ae2-b6ec-4851-bb3f-b22719753624}, !- Zone Return Air Port List
  ,                                       !- Primary Daylighting Control Name
  ,                                       !- Fraction of Zone Controlled by Primary Daylighting Control
  ,                                       !- Secondary Daylighting Control Name
  ,                                       !- Fraction of Zone Controlled by Secondary Daylighting Control
  ,                                       !- Illuminance Map Name
  {c4fb29e2-0474-4ea4-abc0-3738ed199eac}, !- Group Rendering Name
  {abe8307d-d1ef-4a07-ba2a-24a601a3add1}, !- Thermostat Name
  No;                                     !- Use Ideal Air Loads

OS:Node,
  {1e5f4738-fa78-45b8-bd25-4b6749d64da3}, !- Handle
  {83cc784b-82a5-4b43-a88d-6bb871c7bb49}, !- Name
  {9dad43f0-e406-4e88-9dc3-09c86fcbed95}, !- Inlet Port
  ;                                       !- Outlet Port

OS:Connection,
  {9dad43f0-e406-4e88-9dc3-09c86fcbed95}, !- Handle
  {ea4e0c9e-49df-485a-b68c-274906a8be18}, !- Name
  {5db26737-f6a1-4cbd-a61d-77028c5ad4b9}, !- Source Object
  11,                                     !- Outlet Port
  {1e5f4738-fa78-45b8-bd25-4b6749d64da3}, !- Target Object
  2;                                      !- Inlet Port

OS:PortList,
  {e738ee87-bff5-463c-b905-2922780d8b1a}, !- Handle
  {e3821a6e-233d-451c-a91d-361ce1ce9948}, !- Name
  {5db26737-f6a1-4cbd-a61d-77028c5ad4b9}, !- HVAC Component
  {429e3989-e65e-41b2-9519-96c0c64468ba}; !- Port 1

OS:PortList,
  {3c96e553-db2f-4a1f-991f-e684d4a6bc3f}, !- Handle
  {802f5e25-6775-42ed-9955-fcd02e00c378}, !- Name
  {5db26737-f6a1-4cbd-a61d-77028c5ad4b9}; !- HVAC Component

OS:PortList,
  {17647ae2-b6ec-4851-bb3f-b22719753624}, !- Handle
  {2fa78ddb-35c1-407d-b38f-df926d1c305a}, !- Name
  {5db26737-f6a1-4cbd-a61d-77028c5ad4b9}, !- HVAC Component
  {c5b9c5e1-7586-43d2-96bc-7aa5aae79ba3}; !- Port 1

OS:Sizing:Zone,
  {917c9196-ff15-4aab-8deb-5934e8a9ccc9}, !- Handle
  {5db26737-f6a1-4cbd-a61d-77028c5ad4b9}, !- Zone or ZoneList Name
  SupplyAirTemperature,                   !- Zone Cooling Design Supply Air Temperature Input Method
  12,                                     !- Zone Cooling Design Supply Air Temperature {C}
  11.11,                                  !- Zone Cooling Design Supply Air Temperature Difference {deltaC}
  SupplyAirTemperature,                   !- Zone Heating Design Supply Air Temperature Input Method
  50,                                     !- Zone Heating Design Supply Air Temperature {C}
  11.11,                                  !- Zone Heating Design Supply Air Temperature Difference {deltaC}
  0.0085,                                 !- Zone Cooling Design Supply Air Humidity Ratio {kg-H2O/kg-air}
  0.008,                                  !- Zone Heating Design Supply Air Humidity Ratio {kg-H2O/kg-air}
  ,                                       !- Zone Heating Sizing Factor
  ,                                       !- Zone Cooling Sizing Factor
  DesignDay,                              !- Cooling Design Air Flow Method
  ,                                       !- Cooling Design Air Flow Rate {m3/s}
  0.000762,                               !- Cooling Minimum Air Flow per Zone Floor Area {m3/s-m2}
  ,                                       !- Cooling Minimum Air Flow {m3/s}
  ,                                       !- Cooling Minimum Air Flow Fraction
  DesignDay,                              !- Heating Design Air Flow Method
  ,                                       !- Heating Design Air Flow Rate {m3/s}
  0.002032,                               !- Heating Maximum Air Flow per Zone Floor Area {m3/s-m2}
  0.1415762,                              !- Heating Maximum Air Flow {m3/s}
  0.3,                                    !- Heating Maximum Air Flow Fraction
  No,                                     !- Account for Dedicated Outdoor Air System
  NeutralSupplyAir,                       !- Dedicated Outdoor Air System Control Strategy
  autosize,                               !- Dedicated Outdoor Air Low Setpoint Temperature for Design {C}
  autosize;                               !- Dedicated Outdoor Air High Setpoint Temperature for Design {C}

OS:ZoneHVAC:EquipmentList,
  {08f1276a-5fc8-43e8-8c3b-ea940a704507}, !- Handle
  {6440e9d3-8ff4-4d11-8c76-44e9f37b45fd}, !- Name
  {5db26737-f6a1-4cbd-a61d-77028c5ad4b9}, !- Thermal Zone
  ,                                       !- Load Distribution Scheme
  {067d72c3-1af8-4fc7-94d3-b4f36ae3b7ac}, !- Zone Equipment 1
  1,                                      !- Zone Equipment Cooling Sequence 1
  1,                                      !- Zone Equipment Heating or No-Load Sequence 1
  ,                                       !- Zone Equipment Sequential Cooling Fraction Schedule Name 1
  ;                                       !- Zone Equipment Sequential Heating Fraction Schedule Name 1

OS:Space,
  {7ef7b0ee-9188-470f-b5c3-c9cf78424d54}, !- Handle
  living_unit1,                           !- Name
  ,                                       !- Space Type Name
  ,                                       !- Default Construction Set Name
  ,                                       !- Default Schedule Set Name
  0,                                      !- Direction of Relative North {deg}
  0,                                      !- X Origin {m}
  0,                                      !- Y Origin {m}
  0,                                      !- Z Origin {m}
  ,                                       !- Building Story Name
  {5db26737-f6a1-4cbd-a61d-77028c5ad4b9}, !- Thermal Zone Name
  ,                                       !- Part of Total Floor Area
  {ed5b51e0-ae30-4f40-9666-c380d80878fd}; !- Design Specification Outdoor Air Object Name

OS:ThermostatSetpoint:DualSetpoint,
  {abe8307d-d1ef-4a07-ba2a-24a601a3add1}, !- Handle
  thermostat_living Dual SP Control,      !- Name
  {f0c0d212-7c36-4ba8-8121-ce8b8ef2909a}, !- Heating Setpoint Temperature Schedule Name
  {899dacc1-4c9d-4c62-b6c9-02b7de3ff0ee}; !- Cooling Setpoint Temperature Schedule Name

OS:Schedule:Compact,
  {f0c0d212-7c36-4ba8-8121-ce8b8ef2909a}, !- Handle
  heating_sch,                            !- Name
  {61a94fe5-3396-4e90-b361-2faf67f07352}, !- Schedule Type Limits Name
  Through: 12/31,                         !- Field 1
  For: AllDays,                           !- Field 2
  Until: 24:00,                           !- Field 3
  22.22;                                  !- Field 4

OS:ScheduleTypeLimits,
  {61a94fe5-3396-4e90-b361-2faf67f07352}, !- Handle
  Temperature,                            !- Name
  -60,                                    !- Lower Limit Value
  200,                                    !- Upper Limit Value
  Continuous,                             !- Numeric Type
  Temperature;                            !- Unit Type

OS:Schedule:Compact,
  {899dacc1-4c9d-4c62-b6c9-02b7de3ff0ee}, !- Handle
  cooling_sch,                            !- Name
  {61a94fe5-3396-4e90-b361-2faf67f07352}, !- Schedule Type Limits Name
  Through: 12/31,                         !- Field 1
  For: AllDays,                           !- Field 2
  Until: 24:00,                           !- Field 3
  23.88;                                  !- Field 4

OS:Surface,
  {b11f3684-ef61-47ba-888b-7862924aac19}, !- Handle
  ceiling_unit1,                          !- Name
  RoofCeiling,                            !- Surface Type
  {b50d19ee-73f4-4edb-bbbe-a4f6f7097f3e}, !- Construction Name
  {7ef7b0ee-9188-470f-b5c3-c9cf78424d54}, !- Space Name
  Surface,                                !- Outside Boundary Condition
  {7c8a4291-c630-4c44-8ca7-38b5196fc47e}, !- Outside Boundary Condition Object
  NoSun,                                  !- Sun Exposure
  NoWind,                                 !- Wind Exposure
  0,                                      !- View Factor to Ground
  ,                                       !- Number of Vertices
  12.1330909462833, 0, 5.33536585365854,  !- X,Y,Z Vertex 1 {m}
  12.1330909462833, 9.09981820971244, 5.33536585365854, !- X,Y,Z Vertex 2 {m}
  0, 9.09981820971244, 5.33536585365854,  !- X,Y,Z Vertex 3 {m}
  0, 0, 5.33536585365854;                 !- X,Y,Z Vertex 4 {m}

OS:Material,
  {dfe2829b-4afc-456f-a763-38d2b1127d2a}, !- Handle
  ceil_consol_layer,                      !- Name
  Rough,                                  !- Roughness
  0.400206234336168,                      !- Thickness {m}
  0.0617176,                              !- Conductivity {W/m-K}
  41.9286,                                !- Density {kg/m3}
  776.25126;                              !- Specific Heat {J/kg-K}

OS:Material,
  {13acd6a6-5634-4528-b69d-5d5bb93160d5}, !- Handle
  Drywall_1/2in,                          !- Name
  MediumSmooth,                           !- Roughness
  0.0127000257446048,                     !- Thickness {m}
  0.16009,                                !- Conductivity {W/m-K}
  800.922646044499,                       !- Density {kg/m3}
  1087.84000823168;                       !- Specific Heat {J/kg-K}

OS:ThermalZone,
  {dac2f6e1-039e-47cf-96a4-e66ecc1a61fb}, !- Handle
  attic_unit1 Thermal Zone,               !- Name
  1,                                      !- Multiplier
  ,                                       !- Ceiling Height {m}
  ,                                       !- Volume {m3}
  ,                                       !- Floor Area {m2}
  ,                                       !- Zone Inside Convection Algorithm
  ,                                       !- Zone Outside Convection Algorithm
  ,                                       !- Zone Conditioning Equipment List Name
  {2e6b0c58-5d33-4dad-ad1d-b23828a2276d}, !- Zone Air Inlet Port List
  {7c28330a-e1d9-48ca-8d51-58e4e2f6ee0d}, !- Zone Air Exhaust Port List
  {fea35736-7283-4200-aee3-9133a758306a}, !- Zone Air Node Name
  {3b776962-e77c-4b84-beac-c61a6768a470}, !- Zone Return Air Port List
  ,                                       !- Primary Daylighting Control Name
  ,                                       !- Fraction of Zone Controlled by Primary Daylighting Control
  ,                                       !- Secondary Daylighting Control Name
  ,                                       !- Fraction of Zone Controlled by Secondary Daylighting Control
  ,                                       !- Illuminance Map Name
  {2c5c1828-a54c-42e3-b752-be8b95663949}, !- Group Rendering Name
  ,                                       !- Thermostat Name
  No;                                     !- Use Ideal Air Loads

OS:Node,
  {126c4f37-718f-43f9-b741-e4a396c1ba19}, !- Handle
  {5748ac1e-ecce-4e1d-9d18-cd6ae13e2217}, !- Name
  {fea35736-7283-4200-aee3-9133a758306a}, !- Inlet Port
  ;                                       !- Outlet Port

OS:Connection,
  {fea35736-7283-4200-aee3-9133a758306a}, !- Handle
  {743a9783-de49-49f8-a648-bc588a9de6f8}, !- Name
  {dac2f6e1-039e-47cf-96a4-e66ecc1a61fb}, !- Source Object
  11,                                     !- Outlet Port
  {126c4f37-718f-43f9-b741-e4a396c1ba19}, !- Target Object
  2;                                      !- Inlet Port

OS:PortList,
  {2e6b0c58-5d33-4dad-ad1d-b23828a2276d}, !- Handle
  {cfed9cf0-a8fe-4dea-9117-1a6c2c4bef61}, !- Name
  {dac2f6e1-039e-47cf-96a4-e66ecc1a61fb}; !- HVAC Component

OS:PortList,
  {7c28330a-e1d9-48ca-8d51-58e4e2f6ee0d}, !- Handle
  {489c9b5c-fd49-4f44-82aa-0dd8ab350e6b}, !- Name
  {dac2f6e1-039e-47cf-96a4-e66ecc1a61fb}; !- HVAC Component

OS:PortList,
  {3b776962-e77c-4b84-beac-c61a6768a470}, !- Handle
  {daba1d4a-9564-44bf-a0bb-fba89c362600}, !- Name
  {dac2f6e1-039e-47cf-96a4-e66ecc1a61fb}; !- HVAC Component

OS:Sizing:Zone,
  {86a332f7-abb5-4423-a1f9-010cb43c05e4}, !- Handle
  {dac2f6e1-039e-47cf-96a4-e66ecc1a61fb}, !- Zone or ZoneList Name
  SupplyAirTemperature,                   !- Zone Cooling Design Supply Air Temperature Input Method
  14,                                     !- Zone Cooling Design Supply Air Temperature {C}
  11.11,                                  !- Zone Cooling Design Supply Air Temperature Difference {deltaC}
  SupplyAirTemperature,                   !- Zone Heating Design Supply Air Temperature Input Method
  40,                                     !- Zone Heating Design Supply Air Temperature {C}
  11.11,                                  !- Zone Heating Design Supply Air Temperature Difference {deltaC}
  0.0085,                                 !- Zone Cooling Design Supply Air Humidity Ratio {kg-H2O/kg-air}
  0.008,                                  !- Zone Heating Design Supply Air Humidity Ratio {kg-H2O/kg-air}
  ,                                       !- Zone Heating Sizing Factor
  ,                                       !- Zone Cooling Sizing Factor
  DesignDay,                              !- Cooling Design Air Flow Method
  ,                                       !- Cooling Design Air Flow Rate {m3/s}
  ,                                       !- Cooling Minimum Air Flow per Zone Floor Area {m3/s-m2}
  ,                                       !- Cooling Minimum Air Flow {m3/s}
  ,                                       !- Cooling Minimum Air Flow Fraction
  DesignDay,                              !- Heating Design Air Flow Method
  ,                                       !- Heating Design Air Flow Rate {m3/s}
  ,                                       !- Heating Maximum Air Flow per Zone Floor Area {m3/s-m2}
  ,                                       !- Heating Maximum Air Flow {m3/s}
  ,                                       !- Heating Maximum Air Flow Fraction
  No,                                     !- Account for Dedicated Outdoor Air System
  NeutralSupplyAir,                       !- Dedicated Outdoor Air System Control Strategy
  autosize,                               !- Dedicated Outdoor Air Low Setpoint Temperature for Design {C}
  autosize;                               !- Dedicated Outdoor Air High Setpoint Temperature for Design {C}

OS:ZoneHVAC:EquipmentList,
  {7bc344cd-9656-4e82-bae9-c20f2dec2fc0}, !- Handle
  {a7738b7e-fdaa-478a-8bc6-2808093d28b8}, !- Name
  {dac2f6e1-039e-47cf-96a4-e66ecc1a61fb}; !- Thermal Zone

OS:Space,
  {cad680c1-f00f-4bd8-bd1e-7f299c87ac51}, !- Handle
  attic_unit1,                            !- Name
  ,                                       !- Space Type Name
  ,                                       !- Default Construction Set Name
  ,                                       !- Default Schedule Set Name
  0,                                      !- Direction of Relative North {deg}
  0,                                      !- X Origin {m}
  0,                                      !- Y Origin {m}
  0,                                      !- Z Origin {m}
  ,                                       !- Building Story Name
  {dac2f6e1-039e-47cf-96a4-e66ecc1a61fb}, !- Thermal Zone Name
  No;                                     !- Part of Total Floor Area

OS:Surface,
  {7c8a4291-c630-4c44-8ca7-38b5196fc47e}, !- Handle
  ceiling_unit1 Reversed,                 !- Name
  Floor,                                  !- Surface Type
  {8c7f0d09-cc30-40f1-b182-1018b5d75166}, !- Construction Name
  {cad680c1-f00f-4bd8-bd1e-7f299c87ac51}, !- Space Name
  Surface,                                !- Outside Boundary Condition
  {b11f3684-ef61-47ba-888b-7862924aac19}, !- Outside Boundary Condition Object
  NoSun,                                  !- Sun Exposure
  NoWind,                                 !- Wind Exposure
  ,                                       !- View Factor to Ground
  ,                                       !- Number of Vertices
  0, 0, 5.33536585365854,                 !- X,Y,Z Vertex 1 {m}
  0, 9.09981820971244, 5.33536585365854,  !- X,Y,Z Vertex 2 {m}
  12.1330909462833, 9.09981820971244, 5.33536585365854, !- X,Y,Z Vertex 3 {m}
  12.1330909462833, 0, 5.33536585365854;  !- X,Y,Z Vertex 4 {m}

OS:ThermalZone,
  {7e1914c8-e501-4868-9aa8-151094251b43}, !- Handle
  crawlspace_unit1 Thermal Zone,          !- Name
  1,                                      !- Multiplier
  ,                                       !- Ceiling Height {m}
  ,                                       !- Volume {m3}
  ,                                       !- Floor Area {m2}
  ,                                       !- Zone Inside Convection Algorithm
  ,                                       !- Zone Outside Convection Algorithm
  ,                                       !- Zone Conditioning Equipment List Name
  {e89f19be-2df4-49e6-b2ca-6ed9253266e4}, !- Zone Air Inlet Port List
  {ed515046-88de-475a-9a07-7a1169f25560}, !- Zone Air Exhaust Port List
  {4557ed43-49f2-425d-8e8b-b5fa6842b2b4}, !- Zone Air Node Name
  {3ef87a4f-5892-4ef6-b65c-5609830d1004}, !- Zone Return Air Port List
  ,                                       !- Primary Daylighting Control Name
  ,                                       !- Fraction of Zone Controlled by Primary Daylighting Control
  ,                                       !- Secondary Daylighting Control Name
  ,                                       !- Fraction of Zone Controlled by Secondary Daylighting Control
  ,                                       !- Illuminance Map Name
  {4d8709a3-80b6-45a8-a727-91e0a180dc7d}, !- Group Rendering Name
  ,                                       !- Thermostat Name
  No;                                     !- Use Ideal Air Loads

OS:Node,
  {ac1ed505-a2b6-41be-92fc-0dc6a356b18f}, !- Handle
  {4eb90acd-045d-4f95-b5f8-a8109ecf5345}, !- Name
  {4557ed43-49f2-425d-8e8b-b5fa6842b2b4}, !- Inlet Port
  ;                                       !- Outlet Port

OS:Connection,
  {4557ed43-49f2-425d-8e8b-b5fa6842b2b4}, !- Handle
  {6a83f3a4-12a9-4803-9b69-913c641e00ae}, !- Name
  {7e1914c8-e501-4868-9aa8-151094251b43}, !- Source Object
  11,                                     !- Outlet Port
  {ac1ed505-a2b6-41be-92fc-0dc6a356b18f}, !- Target Object
  2;                                      !- Inlet Port

OS:PortList,
  {e89f19be-2df4-49e6-b2ca-6ed9253266e4}, !- Handle
  {9985349f-36d3-4b0d-b5e9-dbba54a5b8bb}, !- Name
  {7e1914c8-e501-4868-9aa8-151094251b43}; !- HVAC Component

OS:PortList,
  {ed515046-88de-475a-9a07-7a1169f25560}, !- Handle
  {febf8065-d8ca-4c71-8925-f0da53954ee4}, !- Name
  {7e1914c8-e501-4868-9aa8-151094251b43}; !- HVAC Component

OS:PortList,
  {3ef87a4f-5892-4ef6-b65c-5609830d1004}, !- Handle
  {0d07359e-d080-4643-8e5a-5c6183f61c59}, !- Name
  {7e1914c8-e501-4868-9aa8-151094251b43}; !- HVAC Component

OS:Sizing:Zone,
  {ea87a88a-465f-4030-9fea-1f479808de0a}, !- Handle
  {7e1914c8-e501-4868-9aa8-151094251b43}, !- Zone or ZoneList Name
  SupplyAirTemperature,                   !- Zone Cooling Design Supply Air Temperature Input Method
  14,                                     !- Zone Cooling Design Supply Air Temperature {C}
  11.11,                                  !- Zone Cooling Design Supply Air Temperature Difference {deltaC}
  SupplyAirTemperature,                   !- Zone Heating Design Supply Air Temperature Input Method
  40,                                     !- Zone Heating Design Supply Air Temperature {C}
  11.11,                                  !- Zone Heating Design Supply Air Temperature Difference {deltaC}
  0.0085,                                 !- Zone Cooling Design Supply Air Humidity Ratio {kg-H2O/kg-air}
  0.008,                                  !- Zone Heating Design Supply Air Humidity Ratio {kg-H2O/kg-air}
  ,                                       !- Zone Heating Sizing Factor
  ,                                       !- Zone Cooling Sizing Factor
  DesignDay,                              !- Cooling Design Air Flow Method
  ,                                       !- Cooling Design Air Flow Rate {m3/s}
  ,                                       !- Cooling Minimum Air Flow per Zone Floor Area {m3/s-m2}
  ,                                       !- Cooling Minimum Air Flow {m3/s}
  ,                                       !- Cooling Minimum Air Flow Fraction
  DesignDay,                              !- Heating Design Air Flow Method
  ,                                       !- Heating Design Air Flow Rate {m3/s}
  ,                                       !- Heating Maximum Air Flow per Zone Floor Area {m3/s-m2}
  ,                                       !- Heating Maximum Air Flow {m3/s}
  ,                                       !- Heating Maximum Air Flow Fraction
  No,                                     !- Account for Dedicated Outdoor Air System
  NeutralSupplyAir,                       !- Dedicated Outdoor Air System Control Strategy
  autosize,                               !- Dedicated Outdoor Air Low Setpoint Temperature for Design {C}
  autosize;                               !- Dedicated Outdoor Air High Setpoint Temperature for Design {C}

OS:ZoneHVAC:EquipmentList,
  {68636ee5-8ed6-4616-b064-f30112976dcc}, !- Handle
  {aa722db7-d787-4a97-936e-202585ca0691}, !- Name
  {7e1914c8-e501-4868-9aa8-151094251b43}; !- Thermal Zone

OS:Space,
  {459593cc-6ef5-48ce-b9f2-5e3418f32068}, !- Handle
  crawlspace_unit1,                       !- Name
  ,                                       !- Space Type Name
  ,                                       !- Default Construction Set Name
  ,                                       !- Default Schedule Set Name
  0,                                      !- Direction of Relative North {deg}
  0,                                      !- X Origin {m}
  0,                                      !- Y Origin {m}
  0,                                      !- Z Origin {m}
  ,                                       !- Building Story Name
  {7e1914c8-e501-4868-9aa8-151094251b43}, !- Thermal Zone Name
  No;                                     !- Part of Total Floor Area

OS:InternalMass:Definition,
  {8aea6d2f-ff18-46cc-844a-aefd551f2005}, !- Handle
  Internalmass_unit1 Definition,          !- Name
  {79cd0a16-b25a-4c8d-8850-15d040c5ac3a}, !- Construction Name
  SurfaceArea,                            !- Design Level Calculation Method
  9.89591078066915,                       !- Surface Area {m2}
  ,                                       !- Surface Area per Space Floor Area {dimensionless}
  ;                                       !- Surface Area per Person {m2/person}

OS:Construction,
  {79cd0a16-b25a-4c8d-8850-15d040c5ac3a}, !- Handle
  InteriorFurnishings,                    !- Name
  {c058c64b-df89-4577-ab8c-256b4f7c0fb1}, !- Surface Rendering Name
  {46a2498d-faa1-4f6a-ba5d-75dbc4e694cd}; !- Layer 1

OS:Material,
  {46a2498d-faa1-4f6a-ba5d-75dbc4e694cd}, !- Handle
  Std Wood 6inch,                         !- Name
  MediumSmooth,                           !- Roughness
  0.15,                                   !- Thickness {m}
  0.12,                                   !- Conductivity {W/m-K}
  540,                                    !- Density {kg/m3}
  1210,                                   !- Specific Heat {J/kg-K}
  0.9,                                    !- Thermal Absorptance
  0.7,                                    !- Solar Absorptance
  0.7;                                    !- Visible Absorptance

OS:InternalMass,
  {fe28a3ba-be38-43f8-b095-ba99d7ec316f}, !- Handle
  Internalmass_unit1,                     !- Name
  {8aea6d2f-ff18-46cc-844a-aefd551f2005}, !- Internal Mass Definition Name
  {7ef7b0ee-9188-470f-b5c3-c9cf78424d54}, !- Space or SpaceType Name
  1;                                      !- Multiplier

OS:Surface,
  {00890c3d-e88a-466d-9f8c-1bcb96535e4b}, !- Handle
  Roof_front_unit1,                       !- Name
  RoofCeiling,                            !- Surface Type
  {31d47cfc-cbed-4168-89ac-3bc064add3e1}, !- Construction Name
  {cad680c1-f00f-4bd8-bd1e-7f299c87ac51}, !- Space Name
  Outdoors,                               !- Outside Boundary Condition
  ,                                       !- Outside Boundary Condition Object
  SunExposed,                             !- Sun Exposure
  WindExposed,                            !- Wind Exposure
  0,                                      !- View Factor to Ground
  ,                                       !- Number of Vertices
  0, 4.54990910485622, 6.6995631975537,   !- X,Y,Z Vertex 1 {m}
  0, 0, 5.33536585365854,                 !- X,Y,Z Vertex 2 {m}
  12.1330909462833, 0, 5.33536585365854,  !- X,Y,Z Vertex 3 {m}
  12.1330909462833, 4.54990910485622, 6.6995631975537; !- X,Y,Z Vertex 4 {m}

OS:Construction,
  {31d47cfc-cbed-4168-89ac-3bc064add3e1}, !- Handle
  Exterior Roof,                          !- Name
  {20d7adbf-e85b-48db-85c1-c007cd5dffa4}, !- Surface Rendering Name
  {21dac929-ae85-4907-a690-79d5377a80a4}, !- Layer 1
  {59f33acd-9e3f-4a64-9860-c8e8a45fa747}, !- Layer 2