
OS:Version,
  {9b01cc01-fece-4c5c-b74c-29c4dc197161}, !- Handle
  3.0.0;                                  !- Version Identifier

OS:Site,
  {7d21577c-cd3f-4a64-97f5-23f3ca120b5e}, !- Handle
  Washington Dc Dulles IntL Ar,           !- Name
  38.98,                                  !- Latitude {deg}
  -77.47,                                 !- Longitude {deg}
  -5,                                     !- Time Zone {hr}
  82,                                     !- Elevation {m}
  Suburbs;                                !- Terrain

OS:SimulationControl,
  {2a2d5503-d0cc-46ed-a34f-2984e1f129fd}, !- Handle
  Yes,                                    !- Do Zone Sizing Calculation
  Yes,                                    !- Do System Sizing Calculation
  Yes,                                    !- Do Plant Sizing Calculation
  No,                                     !- Run Simulation for Sizing Periods
  Yes,                                    !- Run Simulation for Weather File Run Periods
  0.04,                                   !- Loads Convergence Tolerance Value {W}
  0.4,                                    !- Temperature Convergence Tolerance Value {deltaC}
  FullExterior,                           !- Solar Distribution
  60,                                     !- Maximum Number of Warmup Days
  6,                                      !- Minimum Number of Warmup Days
  No;                                     !- Do HVAC Sizing Simulation for Sizing Periods

OS:Timestep,
  {83003586-3808-4869-9d80-b619c8e177a2}, !- Handle
  1;                                      !- Number of Timesteps per Hour

OS:Building,
  {c84068a1-6d82-4b24-9275-ac0f15a26742}, !- Handle
  NIST NZE House,                         !- Name
  ,                                       !- Building Sector Type
  0,                                      !- North Axis {deg}
  ,                                       !- Nominal Floor to Floor Height {m}
  ,                                       !- Space Type Name
  ,                                       !- Default Construction Set Name
  ,                                       !- Default Schedule Set Name
  ,                                       !- Standards Number of Stories
  ,                                       !- Standards Number of Above Ground Stories
  ,                                       !- Standards Template
  ,                                       !- Standards Building Type
  ,                                       !- Standards Number of Living Units
  ,                                       !- Relocatable
  ;                                       !- Nominal Floor to Ceiling Height {m}

OS:ShadingSurfaceGroup,
  {60bdae4b-b787-4368-971e-e11f416ca86a}, !- Handle
  {d4cee307-936c-45b3-b85d-95e6d2aed710}, !- Name
  Building,                               !- Shading Surface Type
  ,                                       !- Space Name
  ,                                       !- Direction of Relative North {deg}
  ,                                       !- X Origin {m}
  ,                                       !- Y Origin {m}
  ,                                       !- Z Origin {m}
  ;                                       !- Shaded Object Name

OS:ScheduleTypeLimits,
  {8556f044-d2c6-4ca0-8a3b-c4c9ff6ccee5}, !- Handle
  {07b50d77-2b86-4f8e-9881-7140d5bc171d}; !- Name

OS:ShadingSurface,
  {6215a58a-4475-4ae3-8965-b1aa2687e61b}, !- Handle
  1011BD,                                 !- Name
  ,                                       !- Construction Name
  {60bdae4b-b787-4368-971e-e11f416ca86a}, !- Shading Surface Group Name
  ,                                       !- Transmittance Schedule Name
  ,                                       !- Number of Vertices
  11.2522, 15.0622, 3.220508296846,       !- X,Y,Z Vertex 1 {m}
  11.2522, 15.43685, 3.095625,            !- X,Y,Z Vertex 2 {m}
  7.2898, 15.43685, 3.095625,             !- X,Y,Z Vertex 3 {m}
  7.2898, 15.0622, 3.220508296846;        !- X,Y,Z Vertex 4 {m}

OS:Surface,
  {6bfe4221-584f-487b-9b8d-8ecd5b6719cd}, !- Handle
  East Wall 2a C Reversed,                !- Name
  Wall,                                   !- Surface Type
  {5efe261f-3145-4675-9ecc-ed9bb1a63cca}, !- Construction Name
  {d0058797-4421-4768-99ef-15a193a58f1d}, !- Space Name
  Surface,                                !- Outside Boundary Condition
  {bf3de757-62b3-420e-9515-42a404103adf}, !- Outside Boundary Condition Object
  NoSun,                                  !- Sun Exposure
  NoWind,                                 !- Wind Exposure
  ,                                       !- View Factor to Ground
  ,                                       !- Number of Vertices
  -62.822209, 2.081244, 3.865455,         !- X,Y,Z Vertex 1 {m}
  -62.822209, 2.081244, 3.273425,         !- X,Y,Z Vertex 2 {m}
  -62.822209, 0.305153, 3.273425;         !- X,Y,Z Vertex 3 {m}

OS:Construction,
  {5efe261f-3145-4675-9ecc-ed9bb1a63cca}, !- Handle
  Small Attic West Wall Assemby,          !- Name
  {21fcb60d-1377-434c-ac8b-14ee02b85f8f}, !- Surface Rendering Name
  {3a053893-68ca-465f-8c33-674528ad7d6b}, !- Layer 1
  {b667405c-7cbe-4882-b1c0-7a23723fd897}, !- Layer 2
  {cebc282b-fb6f-4e1d-aef8-b0e2054c395a}, !- Layer 3
  {10953348-fe19-4af9-bf13-db87f8d633c7}, !- Layer 4
  {9f7377b9-3f83-45e7-b542-bf7f589bbfd6}, !- Layer 5
  {9f7377b9-3f83-45e7-b542-bf7f589bbfd6}, !- Layer 6
  {c70b5e52-a1bc-42fa-932e-3e8349d661d7}, !- Layer 7
  {658c8bed-287e-4c9c-9819-f43511ee97dd}; !- Layer 8

OS:Material,
  {3a053893-68ca-465f-8c33-674528ad7d6b}, !- Handle
  1/2" GWB,                               !- Name
  MediumSmooth,                           !- Roughness
  0.0127,                                 !- Thickness {m}
  0.16,                                   !- Conductivity {W/m-K}
  800,                                    !- Density {kg/m3}
  1090,                                   !- Specific Heat {J/kg-K}
  0.9,                                    !- Thermal Absorptance
  0.7,                                    !- Solar Absorptance
  0.7;                                    !- Visible Absorptance

OS:Material,
  {b667405c-7cbe-4882-b1c0-7a23723fd897}, !- Handle
  2x6 24" O.C. Wood Stud Wall w/ R-19 Cellulose Insulation, !- Name
  MediumRough,                            !- Roughness
  0.1397,                                 !- Thickness {m}
  0.058209,                               !- Conductivity {W/m-K}
  92.55,                                  !- Density {kg/m3}
  850,                                    !- Specific Heat {J/kg-K}
  0.9,                                    !- Thermal Absorptance
  0.7,                                    !- Solar Absorptance
  0.7;                                    !- Visible Absorptance

OS:Material,
  {cebc282b-fb6f-4e1d-aef8-b0e2054c395a}, !- Handle
  1/2" Plywood Sheathing,                 !- Name
  Smooth,                                 !- Roughness
  0.0127,                                 !- Thickness {m}
  0.07,                                   !- Conductivity {W/m-K}
  400,                                    !- Density {kg/m3}
  1300,                                   !- Specific Heat {J/kg-K}
  0.9,                                    !- Thermal Absorptance
  0.7,                                    !- Solar Absorptance
  0.7;                                    !- Visible Absorptance

OS:Material:NoMass,
  {10953348-fe19-4af9-bf13-db87f8d633c7}, !- Handle
  Air Barrier Membrane,                   !- Name
  Rough,                                  !- Roughness
  0.011,                                  !- Thermal Resistance {m2-K/W}
  0.9,                                    !- Thermal Absorptance
  0.7,                                    !- Solar Absorptance
  0.7;                                    !- Visible Absorptance

OS:Material,
  {9f7377b9-3f83-45e7-b542-bf7f589bbfd6}, !- Handle
  Foil-faced Polyiso - 2.0",              !- Name
  MediumRough,                            !- Roughness
  0.0508,                                 !- Thickness {m}
  0.023,                                  !- Conductivity {W/m-K}
  40,                                     !- Density {kg/m3}
  1496,                                   !- Specific Heat {J/kg-K}
  0.9,                                    !- Thermal Absorptance
  0.7,                                    !- Solar Absorptance
  0.7;                                    !- Visible Absorptance

OS:Material:AirGap,
  {c70b5e52-a1bc-42fa-932e-3e8349d661d7}, !- Handle
  Wood Furring Strips,                    !- Name
  0.15;                                   !- Thermal Resistance {m2-K/W}

OS:Material,
  {658c8bed-287e-4c9c-9819-f43511ee97dd}, !- Handle
  Fiber Cement Siding,                    !- Name
  MediumRough,                            !- Roughness
  0.0079375,                              !- Thickness {m}
  0.09,                                   !- Conductivity {W/m-K}
  1000,                                   !- Density {kg/m3}
  900,                                    !- Specific Heat {J/kg-K}
  0.9,                                    !- Thermal Absorptance
  0.7,                                    !- Solar Absorptance
  0.7;                                    !- Visible Absorptance

OS:ThermalZone,
  {ecd3c05b-e74f-428e-ac56-37a07a84e93a}, !- Handle
  Zone5 Thermal Zone Thermal Zone,        !- Name
  1,                                      !- Multiplier
  ,                                       !- Ceiling Height {m}
  ,                                       !- Volume {m3}
  ,                                       !- Floor Area {m2}
  ,                                       !- Zone Inside Convection Algorithm
  ,                                       !- Zone Outside Convection Algorithm
  ,                                       !- Zone Conditioning Equipment List Name
  {43901b1a-7df9-4dd3-b1c8-95df664a3198}, !- Zone Air Inlet Port List
  {56e09a0a-289f-4a8f-a00b-e2f03944adea}, !- Zone Air Exhaust Port List
  {85db09b1-1eb3-4ac1-a83d-7a646e451a52}, !- Zone Air Node Name
  {5c6efb1b-bfb4-4a73-882c-3062fd557c5e}, !- Zone Return Air Port List
  ,                                       !- Primary Daylighting Control Name
  ,                                       !- Fraction of Zone Controlled by Primary Daylighting Control
  ,                                       !- Secondary Daylighting Control Name
  ,                                       !- Fraction of Zone Controlled by Secondary Daylighting Control
  ,                                       !- Illuminance Map Name
  {f7cc4812-5bae-43eb-8ab5-5408abd8a42b}, !- Group Rendering Name
  ,                                       !- Thermostat Name
  No;                                     !- Use Ideal Air Loads

OS:Node,
  {6ae691cd-0bce-4c00-9403-f02c08793631}, !- Handle
  {19917210-caee-483d-9a73-ce6b53850590}, !- Name
  {85db09b1-1eb3-4ac1-a83d-7a646e451a52}, !- Inlet Port
  ;                                       !- Outlet Port

OS:Connection,
  {85db09b1-1eb3-4ac1-a83d-7a646e451a52}, !- Handle
  {4265088b-63fc-434e-a4dc-a5af3b8ec1bc}, !- Name
  {ecd3c05b-e74f-428e-ac56-37a07a84e93a}, !- Source Object
  11,                                     !- Outlet Port
  {6ae691cd-0bce-4c00-9403-f02c08793631}, !- Target Object
  2;                                      !- Inlet Port

OS:PortList,
  {43901b1a-7df9-4dd3-b1c8-95df664a3198}, !- Handle
  {55d6e5e7-6334-4a1e-8bd8-3787f6fa2361}, !- Name
  {ecd3c05b-e74f-428e-ac56-37a07a84e93a}; !- HVAC Component

OS:PortList,
  {56e09a0a-289f-4a8f-a00b-e2f03944adea}, !- Handle
  {39af6869-f7c6-4973-a000-2125df51fe5f}, !- Name
  {ecd3c05b-e74f-428e-ac56-37a07a84e93a}; !- HVAC Component

OS:PortList,
  {5c6efb1b-bfb4-4a73-882c-3062fd557c5e}, !- Handle
  {8835dec8-44d8-4a26-888e-fd0282cdde1f}, !- Name
  {ecd3c05b-e74f-428e-ac56-37a07a84e93a}; !- HVAC Component

OS:Sizing:Zone,
  {ca7cfe31-65a4-412b-b76d-a09c8c093ec6}, !- Handle
  {ecd3c05b-e74f-428e-ac56-37a07a84e93a}, !- Zone or ZoneList Name
  SupplyAirTemperature,                   !- Zone Cooling Design Supply Air Temperature Input Method
  14,                                     !- Zone Cooling Design Supply Air Temperature {C}
  11.11,                                  !- Zone Cooling Design Supply Air Temperature Difference {deltaC}
  SupplyAirTemperature,                   !- Zone Heating Design Supply Air Temperature Input Method
  40,                                     !- Zone Heating Design Supply Air Temperature {C}
  11.11,                                  !- Zone Heating Design Supply Air Temperature Difference {deltaC}
  0.0085,                                 !- Zone Cooling Design Supply Air Humidity Ratio {kg-H2O/kg-air}
  0.008,                                  !- Zone Heating Design Supply Air Humidity Ratio {kg-H2O/kg-air}
  ,                                       !- Zone Heating Sizing Factor
  ,                                       !- Zone Cooling Sizing Factor
  DesignDay,                              !- Cooling Design Air Flow Method
  ,                                       !- Cooling Design Air Flow Rate {m3/s}
  ,                                       !- Cooling Minimum Air Flow per Zone Floor Area {m3/s-m2}
  ,                                       !- Cooling Minimum Air Flow {m3/s}
  ,                                       !- Cooling Minimum Air Flow Fraction
  DesignDay,                              !- Heating Design Air Flow Method
  ,                                       !- Heating Design Air Flow Rate {m3/s}
  ,                                       !- Heating Maximum Air Flow per Zone Floor Area {m3/s-m2}
  ,                                       !- Heating Maximum Air Flow {m3/s}
  ,                                       !- Heating Maximum Air Flow Fraction
  No,                                     !- Account for Dedicated Outdoor Air System
  NeutralSupplyAir,                       !- Dedicated Outdoor Air System Control Strategy
  autosize,                               !- Dedicated Outdoor Air Low Setpoint Temperature for Design {C}
  autosize;                               !- Dedicated Outdoor Air High Setpoint Temperature for Design {C}

OS:ZoneHVAC:EquipmentList,
  {5fe1ba4a-35cd-49ec-8d50-e9728a503a3e}, !- Handle
  {21b1efec-b7b0-484b-807f-65c54f712efc}, !- Name
  {ecd3c05b-e74f-428e-ac56-37a07a84e93a}; !- Thermal Zone

OS:Space,
  {d0058797-4421-4768-99ef-15a193a58f1d}, !- Handle
  Zone5 Thermal Zone,                     !- Name
  ,                                       !- Space Type Name
  ,                                       !- Default Construction Set Name
  ,                                       !- Default Schedule Set Name
  -0,                                     !- Direction of Relative North {deg}
  74.071361,                              !- X Origin {m}
  0.279047,                               !- Y Origin {m}
  0,                                      !- Z Origin {m}
  ,                                       !- Building Story Name
  {ecd3c05b-e74f-428e-ac56-37a07a84e93a}, !- Thermal Zone Name
  No,                                     !- Part of Total Floor Area
  ,                                       !- Design Specification Outdoor Air Object Name
  ;                                       !- Building Unit Name

OS:ShadingSurface,
  {b98ebde7-7b50-4716-ab9b-a24f32cc3722}, !- Handle
  1945CD,                                 !- Name
  ,                                       !- Construction Name
  {60bdae4b-b787-4368-971e-e11f416ca86a}, !- Shading Surface Group Name
  ,                                       !- Transmittance Schedule Name
  ,                                       !- Number of Vertices
  11.2522, 5.99439999994277, 8.30799300006903, !- X,Y,Z Vertex 1 {m}
  11.5569999986571, 5.99440000005794, 8.30799299993137, !- X,Y,Z Vertex 2 {m}
  11.5554999231948, 3.27523899992499, 6.04202499881344, !- X,Y,Z Vertex 3 {m}
  11.2522, 3.27523900043848, 6.04202499947383; !- X,Y,Z Vertex 4 {m}

OS:Surface,
  {3af7a239-2098-43b9-b490-aded71f91e5e}, !- Handle
  Attic.East.Wall.1,                      !- Name
  Wall,                                   !- Surface Type
  {62c63682-92b4-4752-8b76-e5df410fa7d6}, !- Construction Name
  {1df00da8-c0a8-45b1-88ab-bfa20bc0bca5}, !- Space Name
  Outdoors,                               !- Outside Boundary Condition
  ,                                       !- Outside Boundary Condition Object
  SunExposed,                             !- Sun Exposure
  WindExposed,                            !- Wind Exposure
  ,                                       !- View Factor to Ground
  ,                                       !- Number of Vertices
  -45.482866, 4.725372, 8.5725,           !- X,Y,Z Vertex 1 {m}
  -45.482866, -1.294428, 6.5659,          !- X,Y,Z Vertex 2 {m}
  -45.482866, -1.294428, 6.042025,        !- X,Y,Z Vertex 3 {m}
  -45.482866, 1.688802, 6.042025;         !- X,Y,Z Vertex 4 {m}

OS:Construction,
  {62c63682-92b4-4752-8b76-e5df410fa7d6}, !- Handle
  Exterior Wall Assemby,                  !- Name
  {de792672-b771-4fb0-827d-a237aa1fd185}, !- Surface Rendering Name
  {658c8bed-287e-4c9c-9819-f43511ee97dd}, !- Layer 1
  {c70b5e52-a1bc-42fa-932e-3e8349d661d7}, !- Layer 2
  {9f7377b9-3f83-45e7-b542-bf7f589bbfd6}, !- Layer 3
  {9f7377b9-3f83-45e7-b542-bf7f589bbfd6}, !- Layer 4
  {10953348-fe19-4af9-bf13-db87f8d633c7}, !- Layer 5
  {cebc282b-fb6f-4e1d-aef8-b0e2054c395a}, !- Layer 6
  {b667405c-7cbe-4882-b1c0-7a23723fd897}, !- Layer 7
  {3a053893-68ca-465f-8c33-674528ad7d6b}; !- Layer 8

OS:ThermalZone,
  {72ed5a78-dfc7-4fae-8a33-ae91c73aa409}, !- Handle
  Zone4 Thermal Zone Thermal Zone,        !- Name
  1,                                      !- Multiplier
  ,                                       !- Ceiling Height {m}
  ,                                       !- Volume {m3}
  ,                                       !- Floor Area {m2}
  ,                                       !- Zone Inside Convection Algorithm
  ,                                       !- Zone Outside Convection Algorithm
  ,                                       !- Zone Conditioning Equipment List Name
  {3ea4a61c-e490-4fc7-8ba1-a58604213910}, !- Zone Air Inlet Port List
  {2592f29d-818a-46cc-8629-6db11abb0dcc}, !- Zone Air Exhaust Port List
  {0e1f2109-de22-4fca-8a24-1f81007389ed}, !- Zone Air Node Name
  {f5433cc9-0fb6-4b43-b4a0-bb3d894dd1b0}, !- Zone Return Air Port List
  ,                                       !- Primary Daylighting Control Name
  ,                                       !- Fraction of Zone Controlled by Primary Daylighting Control
  ,                                       !- Secondary Daylighting Control Name
  ,                                       !- Fraction of Zone Controlled by Secondary Daylighting Control
  ,                                       !- Illuminance Map Name
  {414cbc9f-e32e-411c-8e3b-1bdbecb65637}, !- Group Rendering Name
  ,                                       !- Thermostat Name
  No;                                     !- Use Ideal Air Loads

OS:Node,
  {0405827c-b522-4620-a298-61a9e7604a2a}, !- Handle
  {09b3c6e0-523f-4957-88e1-5858780aaef1}, !- Name
  {0e1f2109-de22-4fca-8a24-1f81007389ed}, !- Inlet Port
  ;                                       !- Outlet Port

OS:Connection,
  {0e1f2109-de22-4fca-8a24-1f81007389ed}, !- Handle
  {ea066400-cb5c-4ed2-a299-5d30ba622e68}, !- Name
  {72ed5a78-dfc7-4fae-8a33-ae91c73aa409}, !- Source Object
  11,                                     !- Outlet Port
  {0405827c-b522-4620-a298-61a9e7604a2a}, !- Target Object
  2;                                      !- Inlet Port

OS:PortList,
  {3ea4a61c-e490-4fc7-8ba1-a58604213910}, !- Handle
  {70ead203-779f-431b-9611-89801330c65e}, !- Name
  {72ed5a78-dfc7-4fae-8a33-ae91c73aa409}; !- HVAC Component

OS:PortList,
  {2592f29d-818a-46cc-8629-6db11abb0dcc}, !- Handle
  {00ecfb20-ef13-4eca-939a-5a458a1a5d06}, !- Name
  {72ed5a78-dfc7-4fae-8a33-ae91c73aa409}; !- HVAC Component

OS:PortList,
  {f5433cc9-0fb6-4b43-b4a0-bb3d894dd1b0}, !- Handle
  {ae65a5ea-db42-4852-ac69-392bb1e8893f}, !- Name
  {72ed5a78-dfc7-4fae-8a33-ae91c73aa409}; !- HVAC Component

OS:Sizing:Zone,
  {72d2c66d-782e-4d6a-9109-9b445993f850}, !- Handle
  {72ed5a78-dfc7-4fae-8a33-ae91c73aa409}, !- Zone or ZoneList Name
  SupplyAirTemperature,                   !- Zone Cooling Design Supply Air Temperature Input Method
  14,                                     !- Zone Cooling Design Supply Air Temperature {C}
  11.11,                                  !- Zone Cooling Design Supply Air Temperature Difference {deltaC}
  SupplyAirTemperature,                   !- Zone Heating Design Supply Air Temperature Input Method
  40,                                     !- Zone Heating Design Supply Air Temperature {C}
  11.11,                                  !- Zone Heating Design Supply Air Temperature Difference {deltaC}
  0.0085,                                 !- Zone Cooling Design Supply Air Humidity Ratio {kg-H2O/kg-air}
  0.008,                                  !- Zone Heating Design Supply Air Humidity Ratio {kg-H2O/kg-air}
  ,                                       !- Zone Heating Sizing Factor
  ,                                       !- Zone Cooling Sizing Factor
  DesignDay,                              !- Cooling Design Air Flow Method
  ,                                       !- Cooling Design Air Flow Rate {m3/s}
  ,                                       !- Cooling Minimum Air Flow per Zone Floor Area {m3/s-m2}
  ,                                       !- Cooling Minimum Air Flow {m3/s}
  ,                                       !- Cooling Minimum Air Flow Fraction
  DesignDay,                              !- Heating Design Air Flow Method
  ,                                       !- Heating Design Air Flow Rate {m3/s}
  ,                                       !- Heating Maximum Air Flow per Zone Floor Area {m3/s-m2}
  ,                                       !- Heating Maximum Air Flow {m3/s}
  ,                                       !- Heating Maximum Air Flow Fraction
  No,                                     !- Account for Dedicated Outdoor Air System
  NeutralSupplyAir,                       !- Dedicated Outdoor Air System Control Strategy
  autosize,                               !- Dedicated Outdoor Air Low Setpoint Temperature for Design {C}
  autosize;                               !- Dedicated Outdoor Air High Setpoint Temperature for Design {C}

OS:ZoneHVAC:EquipmentList,
  {034b8070-0a01-4769-b039-dcf0a9dc5aa3}, !- Handle
  {f24a90cb-fc8d-4e9b-9f87-7e2fe21c7a4a}, !- Name
  {72ed5a78-dfc7-4fae-8a33-ae91c73aa409}; !- Thermal Zone

OS:Space,
  {1df00da8-c0a8-45b1-88ab-bfa20bc0bca5}, !- Handle
  Zone4 Thermal Zone,                     !- Name
  ,                                       !- Space Type Name
  ,                                       !- Default Construction Set Name
  ,                                       !- Default Schedule Set Name
  -0,                                     !- Direction of Relative North {deg}
  56.125466,                              !- X Origin {m}
  1.269028,                               !- Y Origin {m}
  0,                                      !- Z Origin {m}
  ,                                       !- Building Story Name
  {72ed5a78-dfc7-4fae-8a33-ae91c73aa409}, !- Thermal Zone Name
  No;                                     !- Part of Total Floor Area

OS:ShadingSurface,
  {4ee564ee-3ffc-4eb3-a12c-531acbecbac2}, !- Handle
  11,                                     !- Name
  ,                                       !- Construction Name
  {60bdae4b-b787-4368-971e-e11f416ca86a}, !- Shading Surface Group Name
  ,                                       !- Transmittance Schedule Name
  ,                                       !- Number of Vertices
  0.198057, -1.831324, 2.5146,            !- X,Y,Z Vertex 1 {m}
  0.198057, -1.831324, 0.1651,            !- X,Y,Z Vertex 2 {m}
  0.273176, -1.702385, 0.1651,            !- X,Y,Z Vertex 3 {m}
  0.273176, -1.702385, 2.5146;            !- X,Y,Z Vertex 4 {m}

OS:ShadingSurface,
  {2ce8694c-9517-4ce4-a74a-780d5c6e2c2a}, !- Handle
  59,                                     !- Name
  ,                                       !- Construction Name
  {60bdae4b-b787-4368-971e-e11f416ca86a}, !- Shading Surface Group Name
  ,                                       !- Transmittance Schedule Name
  ,                                       !- Number of Vertices
  11.24915275, -1.85361600000004, 2.55181999999926, !- X,Y,Z Vertex 1 {m}
  11.249153, -1.548816, 2.55181999999943, !- X,Y,Z Vertex 2 {m}
  10.944353, -1.548816, 2.55182000000009, !- X,Y,Z Vertex 3 {m}
  10.944353, -1.85361600000003, 2.55181999999991; !- X,Y,Z Vertex 4 {m}

OS:ShadingSurface,
  {8cf08f71-5851-495b-8b7e-8471e0f000d3}, !- Handle
  12,                                     !- Name
  ,                                       !- Construction Name
  {60bdae4b-b787-4368-971e-e11f416ca86a}, !- Shading Surface Group Name
  ,                                       !- Transmittance Schedule Name
  ,                                       !- Number of Vertices
  -0.02844775, -1.85361599999993, 2.70192500000083, !- X,Y,Z Vertex 1 {m}
  -0.02844825, -0.0254000000000684, 2.70192499999917, !- X,Y,Z Vertex 2 {m}
  -0.02844775, -0.0253999999999316, 2.55182000000083, !- X,Y,Z Vertex 3 {m}
  -0.02844725, -1.85361600000007, 2.55181999999917; !- X,Y,Z Vertex 4 {m}

OS:ShadingSurface,
  {c730eeb4-4f61-4b95-a899-9e1351655fde}, !- Handle
  128263,                                 !- Name
  ,                                       !- Construction Name
  {60bdae4b-b787-4368-971e-e11f416ca86a}, !- Shading Surface Group Name
  ,                                       !- Transmittance Schedule Name
  ,                                       !- Number of Vertices
  11.2522, 12.0142, 4.022316,             !- X,Y,Z Vertex 1 {m}
  11.2522, 15.43685, 2.8956,              !- X,Y,Z Vertex 2 {m}
  11.557, 15.43685, 2.8956,               !- X,Y,Z Vertex 3 {m}
  11.557, 12.0142, 4.022316;              !- X,Y,Z Vertex 4 {m}

OS:ShadingSurface,
  {82c46d05-4622-4272-b508-a1fdcb083b28}, !- Handle
  13,                                     !- Name
  ,                                       !- Construction Name
  {60bdae4b-b787-4368-971e-e11f416ca86a}, !- Shading Surface Group Name
  ,                                       !- Transmittance Schedule Name
  ,                                       !- Number of Vertices
  3.479928, -1.701216, 2.5146,            !- X,Y,Z Vertex 1 {m}
  3.479928, -1.701216, 0.1651,            !- X,Y,Z Vertex 2 {m}
  3.554033, -1.83074, 0.1651,             !- X,Y,Z Vertex 3 {m}
  3.554033, -1.83074, 2.5146;             !- X,Y,Z Vertex 4 {m}

OS:ShadingSurface,
  {3891dee3-2f86-478e-b21c-d58478eb0a96}, !- Handle
  DD4069,                                 !- Name
  ,                                       !- Construction Name
  {60bdae4b-b787-4368-971e-e11f416ca86a}, !- Shading Surface Group Name
  ,                                       !- Transmittance Schedule Name
  ,                                       !- Number of Vertices
  11.2522, 3.27523900053404, 6.04202499935915, !- X,Y,Z Vertex 1 {m}
  11.5554999231948, 3.27523899982943, 6.04202499892812, !- X,Y,Z Vertex 2 {m}
  11.5538360767532, 0.268676000171406, 3.53655500107091, !- X,Y,Z Vertex 3 {m}
  11.2522, 0.268675999726171, 3.53655500054459; !- X,Y,Z Vertex 4 {m}

OS:ShadingSurface,
  {f2829651-90c1-4643-a016-1c879f9cc8eb}, !- Handle
  DFBCAA,                                 !- Name
  ,                                       !- Construction Name
  {60bdae4b-b787-4368-971e-e11f416ca86a}, !- Shading Surface Group Name
  ,                                       !- Transmittance Schedule Name
  ,                                       !- Number of Vertices
  11.5554978989064, 2.95773600000386, 6.04202500006209, !- X,Y,Z Vertex 1 {m}
  11.5539540998376, 0.168274999981138, 3.71739499862881, !- X,Y,Z Vertex 2 {m}
  11.5538360517247, 0.2686760000175, 3.53655500127222, !- X,Y,Z Vertex 3 {m}
  11.555499948245, 3.27523899998249, 6.04202499872781; !- X,Y,Z Vertex 4 {m}

OS:ShadingSurface,
  {fb004f23-45f8-46e0-b7c9-1897bab51054}, !- Handle
  14,                                     !- Name
  ,                                       !- Construction Name
  {60bdae4b-b787-4368-971e-e11f416ca86a}, !- Shading Surface Group Name
  ,                                       !- Transmittance Schedule Name
  ,                                       !- Number of Vertices
  3.781553, -1.853616, 2.55182,           !- X,Y,Z Vertex 1 {m}
  3.781553, -1.853616, 2.51372,           !- X,Y,Z Vertex 2 {m}
  3.781553, -1.548816, 2.51372,           !- X,Y,Z Vertex 3 {m}
  3.781553, -1.548816, 2.55182;           !- X,Y,Z Vertex 4 {m}

OS:Curve:Biquadratic,
  {a23470a9-0b09-45bc-8fae-3bb72f57cd20}, !- Handle
  OS:Curve:Biquadratic 17,                !- Name
  0.758746,                               !- Coefficient1 Constant
  0,                                      !- Coefficient2 x
  0,                                      !- Coefficient3 x**2
  0.027626,                               !- Coefficient4 y
  0.000148716,                            !- Coefficient5 y**2
  0,                                      !- Coefficient6 x*y
  0,                                      !- Minimum Value of x
  1,                                      !- Maximum Value of x
  0,                                      !- Minimum Value of y