
OS:Version,
  {7f467050-13db-44c4-8bc1-a2cbd0d9786a}, !- Handle
  3.0.0;                                  !- Version Identifier

OS:Site,
  {66fb2c5a-ddc9-44ab-b4f3-059a3fa2880a}, !- Handle
  Washington Dc Dulles IntL Ar,           !- Name
  38.98,                                  !- Latitude {deg}
  -77.47,                                 !- Longitude {deg}
  -5,                                     !- Time Zone {hr}
  82,                                     !- Elevation {m}
  Suburbs;                                !- Terrain

OS:SimulationControl,
  {70f5ace7-452f-4f47-8807-475a2a3a48c5}, !- Handle
  No,                                     !- Do Zone Sizing Calculation
  No,                                     !- Do System Sizing Calculation
  No,                                     !- Do Plant Sizing Calculation
  No,                                     !- Run Simulation for Sizing Periods
  Yes,                                    !- Run Simulation for Weather File Run Periods
  0.04,                                   !- Loads Convergence Tolerance Value {W}
  0.4,                                    !- Temperature Convergence Tolerance Value {deltaC}
  FullExterior,                           !- Solar Distribution
  60,                                     !- Maximum Number of Warmup Days
  6;                                      !- Minimum Number of Warmup Days

OS:ShadingSurface,
  {711d44fe-64b3-4eb5-8fe7-650e059dc4ea}, !- Handle
  28,                                     !- Name
  ,                                       !- Construction Name
  {e44505a7-4a07-428b-a185-95bc9cf537a1}, !- Shading Surface Group Name
  ,                                       !- Transmittance Schedule Name
  ,                                       !- Number of Vertices
  3.554033, -1.83074, 2.5146,             !- X,Y,Z Vertex 1 {m}
  3.554033, -1.83074, 0.1651,             !- X,Y,Z Vertex 2 {m}
  3.703257, -1.831324, 0.1651,            !- X,Y,Z Vertex 3 {m}
  3.703257, -1.831324, 2.5146;            !- X,Y,Z Vertex 4 {m}

OS:ShadingSurfaceGroup,
  {e44505a7-4a07-428b-a185-95bc9cf537a1}, !- Handle
  {efafaaa1-ec4f-413a-ab6a-429d2327a0e2}, !- Name
  Building,                               !- Shading Surface Type
  ,                                       !- Space Name
  -0,                                     !- Direction of Relative North {deg}
  0,                                      !- X Origin {m}
  0,                                      !- Y Origin {m}
  0,                                      !- Z Origin {m}
  ;                                       !- Shaded Object Name

OS:Construction,
  {9a39b75e-cabf-44d6-8a8a-7f835d670377}, !- Handle
  Attic Floor Assembly - Main House,      !- Name
  {e70868a7-28b5-42fe-acf6-859d1d483853}, !- Surface Rendering Name
  {b2a344e2-f014-419d-b872-70334be6d794}, !- Layer 1
  {1a6516d4-52f0-475b-8dde-1ef89596021a}; !- Layer 2

OS:Material,
  {b2a344e2-f014-419d-b872-70334be6d794}, !- Handle
  1/2" GWB,                               !- Name
  MediumSmooth,                           !- Roughness
  0.0127,                                 !- Thickness {m}
  0.16,                                   !- Conductivity {W/m-K}
  800,                                    !- Density {kg/m3}
  1090,                                   !- Specific Heat {J/kg-K}
  0.9,                                    !- Thermal Absorptance
  0.7,                                    !- Solar Absorptance
  0.7;                                    !- Visible Absorptance

OS:Material,
  {1a6516d4-52f0-475b-8dde-1ef89596021a}, !- Handle
  11 1/4" LSL Engineered Ceiling Joist,   !- Name
  Rough,                                  !- Roughness
  0.28575,                                !- Thickness {m}
  0.18,                                   !- Conductivity {W/m-K}
  1200,                                   !- Density {kg/m3}
  1012,                                   !- Specific Heat {J/kg-K}
  0.9,                                    !- Thermal Absorptance
  0.7,                                    !- Solar Absorptance
  0.7;                                    !- Visible Absorptance

OS:ThermalZone,
  {cd67dc61-882b-44eb-ac7c-de6f25d530fb}, !- Handle
  Zone4 Thermal Zone,                     !- Name
  1,                                      !- Multiplier
  ,                                       !- Ceiling Height {m}
  ,                                       !- Volume {m3}
  ,                                       !- Floor Area {m2}
  ,                                       !- Zone Inside Convection Algorithm
  ,                                       !- Zone Outside Convection Algorithm
  ,                                       !- Zone Conditioning Equipment List Name
  {aa220627-9066-4a0b-bddf-a6c2ddc0bab8}, !- Zone Air Inlet Port List
  {bd023e75-f2e8-4fcf-9058-506d86c427a8}, !- Zone Air Exhaust Port List
  {223971f4-704b-41f3-8293-b00c34279e94}, !- Zone Air Node Name
  {8241805f-33de-48ec-be69-6e8147b46fcf}, !- Zone Return Air Port List
  ,                                       !- Primary Daylighting Control Name
  ,                                       !- Fraction of Zone Controlled by Primary Daylighting Control
  ,                                       !- Secondary Daylighting Control Name
  ,                                       !- Fraction of Zone Controlled by Secondary Daylighting Control
  ,                                       !- Illuminance Map Name
  {35100cc7-1bf2-4674-a0ea-22dbce0a216a}, !- Group Rendering Name
  ,                                       !- Thermostat Name
  No;                                     !- Use Ideal Air Loads

OS:PortList,
  {8241805f-33de-48ec-be69-6e8147b46fcf}, !- Handle
  Port List 1,                            !- Name
  {cd67dc61-882b-44eb-ac7c-de6f25d530fb}, !- HVAC Component
  ;                                       !- Port 1

OS:Node,
  {e9dc019b-f236-456d-a7dc-5c54bacb3622}, !- Handle
  {b41f098f-bdec-4870-909c-1349fa008ac1}, !- Name
  {223971f4-704b-41f3-8293-b00c34279e94}, !- Inlet Port
  ;                                       !- Outlet Port

OS:Connection,
  {223971f4-704b-41f3-8293-b00c34279e94}, !- Handle
  {04356767-1c2b-440b-bc4e-2f68bf16c4f4}, !- Name
  {cd67dc61-882b-44eb-ac7c-de6f25d530fb}, !- Source Object
  11,                                     !- Outlet Port
  {e9dc019b-f236-456d-a7dc-5c54bacb3622}, !- Target Object
  2;                                      !- Inlet Port

OS:PortList,
  {aa220627-9066-4a0b-bddf-a6c2ddc0bab8}, !- Handle
  {6dea891a-cf9f-4827-9744-8558daac178c}, !- Name
  {cd67dc61-882b-44eb-ac7c-de6f25d530fb}; !- HVAC Component

OS:PortList,
  {bd023e75-f2e8-4fcf-9058-506d86c427a8}, !- Handle
  {d6426b96-b799-4a9a-95fe-178b723fcbd6}, !- Name
  {cd67dc61-882b-44eb-ac7c-de6f25d530fb}; !- HVAC Component

OS:Sizing:Zone,
  {ff69f272-2da9-481c-a2b2-aaf960a86ec3}, !- Handle
  {cd67dc61-882b-44eb-ac7c-de6f25d530fb}, !- Zone or ZoneList Name
  SupplyAirTemperature,                   !- Zone Cooling Design Supply Air Temperature Input Method
  12,                                     !- Zone Cooling Design Supply Air Temperature {C}
  11.11,                                  !- Zone Cooling Design Supply Air Temperature Difference {deltaC}
  SupplyAirTemperature,                   !- Zone Heating Design Supply Air Temperature Input Method
  30,                                     !- Zone Heating Design Supply Air Temperature {C}
  11.11,                                  !- Zone Heating Design Supply Air Temperature Difference {deltaC}
  0.008,                                  !- Zone Cooling Design Supply Air Humidity Ratio {kg-H2O/kg-air}
  0.008,                                  !- Zone Heating Design Supply Air Humidity Ratio {kg-H2O/kg-air}
  ,                                       !- Zone Heating Sizing Factor
  ,                                       !- Zone Cooling Sizing Factor
  DesignDay,                              !- Cooling Design Air Flow Method
  ,                                       !- Cooling Design Air Flow Rate {m3/s}
  0.000762,                               !- Cooling Minimum Air Flow per Zone Floor Area {m3/s-m2}
  ,                                       !- Cooling Minimum Air Flow {m3/s}
  ,                                       !- Cooling Minimum Air Flow Fraction
  DesignDay,                              !- Heating Design Air Flow Method
  ,                                       !- Heating Design Air Flow Rate {m3/s}
  ,                                       !- Heating Maximum Air Flow per Zone Floor Area {m3/s-m2}
  ,                                       !- Heating Maximum Air Flow {m3/s}
  ,                                       !- Heating Maximum Air Flow Fraction
  No,                                     !- Account for Dedicated Outdoor Air System
  NeutralSupplyAir,                       !- Dedicated Outdoor Air System Control Strategy
  Autosize,                               !- Dedicated Outdoor Air Low Setpoint Temperature for Design {C}
  Autosize;                               !- Dedicated Outdoor Air High Setpoint Temperature for Design {C}

OS:ZoneHVAC:EquipmentList,
  {9f9350f5-fa81-45f7-a94a-ed21aeaff48f}, !- Handle
  {751c7d4b-8d70-440b-b1d3-669fe1c5a2cf}, !- Name
  {cd67dc61-882b-44eb-ac7c-de6f25d530fb}; !- Thermal Zone

OS:Space,
  {65b01b92-52cf-40d8-8ae3-3a35b3025a99}, !- Handle
  Attic/Roof (Zone4) Thermal Zone,        !- Name
  ,                                       !- Space Type Name
  ,                                       !- Default Construction Set Name
  ,                                       !- Default Schedule Set Name
  -0,                                     !- Direction of Relative North {deg}
  56.125466,                              !- X Origin {m}
  1.269028,                               !- Y Origin {m}
  0,                                      !- Z Origin {m}
  {2a4431f2-1b60-4669-9efb-a274f68b8673}, !- Building Story Name
  {cd67dc61-882b-44eb-ac7c-de6f25d530fb}, !- Thermal Zone Name
  No,                                     !- Part of Total Floor Area
  ,                                       !- Design Specification Outdoor Air Object Name
  ;                                       !- Building Unit Name

OS:ShadingSurface,
  {26ffd70b-ffda-477e-a06b-7d3912f753aa}, !- Handle
  D02205,                                 !- Name
  ,                                       !- Construction Name
  {e44505a7-4a07-428b-a185-95bc9cf537a1}, !- Shading Surface Group Name
  ,                                       !- Transmittance Schedule Name
  ,                                       !- Number of Vertices
  7.439153, -1.548816, 2.55182,           !- X,Y,Z Vertex 1 {m}
  7.439153, -1.853616, 2.55182,           !- X,Y,Z Vertex 2 {m}
  3.781553, -1.853616, 2.55182,           !- X,Y,Z Vertex 3 {m}
  3.781553, -1.548816, 2.55182;           !- X,Y,Z Vertex 4 {m}

OS:ShadingSurface,
  {415f1507-bdc8-405f-85e7-75b2134e46c4}, !- Handle
  95D1DD,                                 !- Name
  ,                                       !- Construction Name
  {e44505a7-4a07-428b-a185-95bc9cf537a1}, !- Shading Surface Group Name
  ,                                       !- Transmittance Schedule Name
  ,                                       !- Number of Vertices
  -0.333248961792661, 0.168274999980592, 3.71739500003415, !- X,Y,Z Vertex 1 {m}
  -0.333257069742493, 0.273457982380028, 3.54054102113345, !- X,Y,Z Vertex 2 {m}
  -0.333255177559071, 0.0742769999962713, 3.47187100000592, !- X,Y,Z Vertex 3 {m}
  -0.333247048093659, -0.0253998265493287, 3.65283647967139; !- X,Y,Z Vertex 4 {m}

OS:ShadingSurface,
  {10139516-375c-46ff-909f-c8b8db0da7b8}, !- Handle
  186,                                    !- Name
  ,                                       !- Construction Name
  {e44505a7-4a07-428b-a185-95bc9cf537a1}, !- Shading Surface Group Name
  ,                                       !- Transmittance Schedule Name
  ,                                       !- Number of Vertices
  -3.342194, 5.026675, 2.513013,          !- X,Y,Z Vertex 1 {m}
  -3.342194, 5.026675, 0.163513,          !- X,Y,Z Vertex 2 {m}
  -3.267076, 5.155615, 0.163513,          !- X,Y,Z Vertex 3 {m}
  -3.267076, 5.155615, 2.513013;          !- X,Y,Z Vertex 4 {m}

OS:Material,
  {581611ca-9532-44c5-b956-27be9fab1144}, !- Handle
  2x6 24" O.C. Wood Stud Wall - R-19 Cellulose Insulation Only, !- Name
  MediumRough,                            !- Roughness
  0.1397,                                 !- Thickness {m}
  0.047481,                               !- Conductivity {W/m-K}
  30,                                     !- Density {kg/m3}
  712,                                    !- Specific Heat {J/kg-K}
  0.9,                                    !- Thermal Absorptance
  0.7,                                    !- Solar Absorptance
  0.7;                                    !- Visible Absorptance

OS:Material,
  {fad5cf9a-d3b4-4b02-a269-a51f5b7a0afe}, !- Handle
  1/2" Plywood Sheathing,                 !- Name
  Smooth,                                 !- Roughness
  0.0127,                                 !- Thickness {m}
  0.07,                                   !- Conductivity {W/m-K}
  400,                                    !- Density {kg/m3}
  1300,                                   !- Specific Heat {J/kg-K}
  0.9,                                    !- Thermal Absorptance
  0.7,                                    !- Solar Absorptance
  0.7;                                    !- Visible Absorptance

OS:Material:NoMass,
  {64632f35-c786-436e-bdc1-44b909d1ed98}, !- Handle
  Air Barrier Membrane,                   !- Name
  Rough,                                  !- Roughness
  0.011,                                  !- Thermal Resistance {m2-K/W}
  0.9,                                    !- Thermal Absorptance
  0.7,                                    !- Solar Absorptance
  0.7;                                    !- Visible Absorptance

OS:Material,
  {028c6ba6-bd23-4dd9-8f48-4b4fd63bc303}, !- Handle
  Foil-faced Polyiso - 2.0",              !- Name
  MediumRough,                            !- Roughness
  0.0508,                                 !- Thickness {m}
  0.023,                                  !- Conductivity {W/m-K}
  40,                                     !- Density {kg/m3}
  1496,                                   !- Specific Heat {J/kg-K}
  0.9,                                    !- Thermal Absorptance
  0.7,                                    !- Solar Absorptance
  0.7;                                    !- Visible Absorptance

OS:Material:AirGap,
  {461e7f7e-f6d2-4041-91ee-70b8a08bd075}, !- Handle
  Wood Furring Strips,                    !- Name
  0.15;                                   !- Thermal Resistance {m2-K/W}

OS:Material,
  {844cff1e-985d-49e8-be04-c268b594ddbf}, !- Handle
  Fiber Cement Siding,                    !- Name
  MediumRough,                            !- Roughness
  0.0079375,                              !- Thickness {m}
  0.09,                                   !- Conductivity {W/m-K}
  1000,                                   !- Density {kg/m3}
  900,                                    !- Specific Heat {J/kg-K}
  0.9,                                    !- Thermal Absorptance
  0.7,                                    !- Solar Absorptance
  0.7;                                    !- Visible Absorptance

OS:Construction,
  {1c7fe955-9cc1-415b-a177-9a6725f49127}, !- Handle
  Plenum Floor Assembly,                  !- Name
  {5bc532ee-7a30-4372-bc50-63922ef841a6}, !- Surface Rendering Name
  {b2a344e2-f014-419d-b872-70334be6d794}; !- Layer 1

OS:ShadingSurface,
  {a8e14ff3-9864-48fd-97f1-86adb4d355bc}, !- Handle
  216,                                    !- Name
  ,                                       !- Construction Name
  {e44505a7-4a07-428b-a185-95bc9cf537a1}, !- Shading Surface Group Name
  ,                                       !- Transmittance Schedule Name
  ,                                       !- Number of Vertices
  -3.263899, 5.309184, 2.693194,          !- X,Y,Z Vertex 1 {m}
  -3.263899, 5.004384, 2.693194,          !- X,Y,Z Vertex 2 {m}
  -3.568699, 5.004384, 2.693194,          !- X,Y,Z Vertex 3 {m}
  -3.568699, 5.309184, 2.693194;          !- X,Y,Z Vertex 4 {m}

OS:ElectricEquipment:Definition,
  {809ebe82-6229-4ff8-869f-b7cb44c795be}, !- Handle
  Master Bedroom Clock Radio Definition,  !- Name
  EquipmentLevel,                         !- Design Level Calculation Method
  1.71,                                   !- Design Level {W}
  ,                                       !- Watts per Space Floor Area {W/m2}
  ,                                       !- Watts per Person {W/person}
  0.16,                                   !- Fraction Latent
  0.367,                                  !- Fraction Radiant
  0.106;                                  !- Fraction Lost

OS:ElectricEquipment,
  {98546621-1496-4b3b-8ad4-d3e414486264}, !- Handle
  Master Bedroom Clock Radio,             !- Name
  {809ebe82-6229-4ff8-869f-b7cb44c795be}, !- Electric Equipment Definition Name
  {063eacf6-3b19-4d82-8e59-36d3ed57ae3f}, !- Space or SpaceType Name
  {df244131-86ba-4287-a3c8-0955288799fe}, !- Schedule Name
  ,                                       !- Multiplier
  Master Bedroom - MELs;                  !- End-Use Subcategory

OS:ThermalZone,
  {fd099552-8e74-46de-921b-44769102e641}, !- Handle
  Zone3 Thermal Zone,                     !- Name
  1,                                      !- Multiplier
  ,                                       !- Ceiling Height {m}
  ,                                       !- Volume {m3}
  ,                                       !- Floor Area {m2}
  ,                                       !- Zone Inside Convection Algorithm
  ,                                       !- Zone Outside Convection Algorithm
  ,                                       !- Zone Conditioning Equipment List Name
  {8859f4ff-1fa9-44fc-aee8-39764666c696}, !- Zone Air Inlet Port List
  {5d18aeb2-a2da-4e8f-8934-91d288b75b5a}, !- Zone Air Exhaust Port List
  {dcf54530-aee0-4a59-84e8-905b99d11e90}, !- Zone Air Node Name
  {cf801bb4-4727-46a7-8db6-4497b6c9436e}, !- Zone Return Air Port List
  ,                                       !- Primary Daylighting Control Name
  ,                                       !- Fraction of Zone Controlled by Primary Daylighting Control
  ,                                       !- Secondary Daylighting Control Name
  ,                                       !- Fraction of Zone Controlled by Secondary Daylighting Control
  ,                                       !- Illuminance Map Name
  {80804127-98d1-4fa3-8b27-0761b03e81e1}, !- Group Rendering Name
  {b81b3431-c095-4d46-81b0-ca957ef5bf3a}, !- Thermostat Name
  No,                                     !- Use Ideal Air Loads
  {f768d818-b4f9-49dc-8394-ad238f34c40d}; !- Humidistat Name

OS:PortList,
  {cf801bb4-4727-46a7-8db6-4497b6c9436e}, !- Handle
  Port List 2,                            !- Name
  {fd099552-8e74-46de-921b-44769102e641}, !- HVAC Component
  {40a9b8bf-170c-4a22-b3a0-e519fdf7b413}; !- Port 1

OS:Node,
  {f470ce7d-1c9c-466c-8b6f-bd71082e5836}, !- Handle
  {a51fd616-d3d3-4620-9465-bca47a3b8d6e}, !- Name
  {dcf54530-aee0-4a59-84e8-905b99d11e90}, !- Inlet Port
  ;                                       !- Outlet Port

OS:Connection,
  {dcf54530-aee0-4a59-84e8-905b99d11e90}, !- Handle
  {0d603473-95be-4600-b47a-ab39b6a2c283}, !- Name
  {fd099552-8e74-46de-921b-44769102e641}, !- Source Object
  11,                                     !- Outlet Port
  {f470ce7d-1c9c-466c-8b6f-bd71082e5836}, !- Target Object
  2;                                      !- Inlet Port

OS:PortList,
  {8859f4ff-1fa9-44fc-aee8-39764666c696}, !- Handle
  {7fb165de-c5b5-4d4c-ace0-29db219873fe}, !- Name
  {fd099552-8e74-46de-921b-44769102e641}, !- HVAC Component
  {b748be5a-a61e-4c01-a3dd-11980d19c58b}, !- Port 1
  {bcfe1d0c-b80a-4d09-9f9e-82c0aa2ee5ad}, !- Port 2
  {52ef4e61-083c-417e-a1a3-6c8f61e6ec47}; !- Port 3

OS:PortList,
  {5d18aeb2-a2da-4e8f-8934-91d288b75b5a}, !- Handle
  {5f5a406c-2a5e-47d1-bbe6-38d9f98f3f87}, !- Name
  {fd099552-8e74-46de-921b-44769102e641}, !- HVAC Component
  {10301cc4-7e90-4983-9bc9-e4e80bb03669}, !- Port 1
  {e3f2525f-4b1c-446a-9646-42d267f9dd13}; !- Port 2

OS:Sizing:Zone,
  {7b7db2da-5e02-461c-8ad9-dfb770520612}, !- Handle
  {fd099552-8e74-46de-921b-44769102e641}, !- Zone or ZoneList Name
  SupplyAirTemperature,                   !- Zone Cooling Design Supply Air Temperature Input Method
  12,                                     !- Zone Cooling Design Supply Air Temperature {C}
  11.11,                                  !- Zone Cooling Design Supply Air Temperature Difference {deltaC}
  SupplyAirTemperature,                   !- Zone Heating Design Supply Air Temperature Input Method
  30,                                     !- Zone Heating Design Supply Air Temperature {C}
  11.11,                                  !- Zone Heating Design Supply Air Temperature Difference {deltaC}
  0.008,                                  !- Zone Cooling Design Supply Air Humidity Ratio {kg-H2O/kg-air}
  0.008,                                  !- Zone Heating Design Supply Air Humidity Ratio {kg-H2O/kg-air}
  1,                                      !- Zone Heating Sizing Factor
  1,                                      !- Zone Cooling Sizing Factor
  DesignDay,                              !- Cooling Design Air Flow Method
  ,                                       !- Cooling Design Air Flow Rate {m3/s}
  0.000762,                               !- Cooling Minimum Air Flow per Zone Floor Area {m3/s-m2}
  ,                                       !- Cooling Minimum Air Flow {m3/s}
  ,                                       !- Cooling Minimum Air Flow Fraction
  DesignDay,                              !- Heating Design Air Flow Method
  ,                                       !- Heating Design Air Flow Rate {m3/s}
  ,                                       !- Heating Maximum Air Flow per Zone Floor Area {m3/s-m2}
  ,                                       !- Heating Maximum Air Flow {m3/s}
  ,                                       !- Heating Maximum Air Flow Fraction
  No,                                     !- Account for Dedicated Outdoor Air System
  NeutralSupplyAir,                       !- Dedicated Outdoor Air System Control Strategy
  Autosize,                               !- Dedicated Outdoor Air Low Setpoint Temperature for Design {C}
  Autosize;                               !- Dedicated Outdoor Air High Setpoint Temperature for Design {C}

OS:ZoneHVAC:EquipmentList,
  {f2113b24-4970-4076-9eae-165e65aaeef2}, !- Handle
  {2f0408d4-27d9-447a-a013-7c8e04097fa5}, !- Name
  {fd099552-8e74-46de-921b-44769102e641}, !- Thermal Zone
  ,                                       !- Load Distribution Scheme
  {a35ab3ee-d151-4335-8972-8f5d989f4186}, !- Zone Equipment 1
  1,                                      !- Zone Equipment Cooling Sequence 1
  1,                                      !- Zone Equipment Heating or No-Load Sequence 1
  ,                                       !- Zone Equipment Sequential Cooling Fraction Schedule Name 1
  ,                                       !- Zone Equipment Sequential Heating Fraction Schedule Name 1
  {da4150aa-4740-4336-bd10-21951d264c9c}, !- Zone Equipment 2
  2,                                      !- Zone Equipment Cooling Sequence 2
  2,                                      !- Zone Equipment Heating or No-Load Sequence 2
  ,                                       !- Zone Equipment Sequential Cooling Fraction Schedule Name 2
  ,                                       !- Zone Equipment Sequential Heating Fraction Schedule Name 2
  {22857aa2-e487-4d3a-b7e1-3499f4d470fe}, !- Zone Equipment 3
  3,                                      !- Zone Equipment Cooling Sequence 3
  3,                                      !- Zone Equipment Heating or No-Load Sequence 3
  ,                                       !- Zone Equipment Sequential Cooling Fraction Schedule Name 3
  ;                                       !- Zone Equipment Sequential Heating Fraction Schedule Name 3

OS:Space,
  {063eacf6-3b19-4d82-8e59-36d3ed57ae3f}, !- Handle
  Second Floor (Zone3) Thermal Zone,      !- Name
  ,                                       !- Space Type Name
  ,                                       !- Default Construction Set Name
  ,                                       !- Default Schedule Set Name
  -0,                                     !- Direction of Relative North {deg}
  37.184175,                              !- X Origin {m}
  -0.001662,                              !- Y Origin {m}
  0,                                      !- Z Origin {m}
  {d1806378-079c-404c-a0b1-08e034a82af8}, !- Building Story Name
  {fd099552-8e74-46de-921b-44769102e641}, !- Thermal Zone Name
  Yes,                                    !- Part of Total Floor Area
  {d96826e8-752e-4054-b370-e33e0f2e36d1}, !- Design Specification Outdoor Air Object Name
  ;                                       !- Building Unit Name

OS:Schedule:Compact,
  {df244131-86ba-4287-a3c8-0955288799fe}, !- Handle
  Clock Radio,                            !- Name
  {8b1eb7ab-53d8-4a72-80cd-d8ad3ee1a5aa}, !- Schedule Type Limits Name
  Through: 12/31,                         !- Field 1
  For: Mondays,                           !- Field 2
  Until: 24:00,                           !- Field 3
  1,                                      !- Field 4
  For: Tuesdays Thursdays,                !- Field 5
  Until: 24:00,                           !- Field 6
  1,                                      !- Field 7
  For: Wednesdays,                        !- Field 8
  Until: 24:00,                           !- Field 9
  1,                                      !- Field 10
  For: Fridays,                           !- Field 11
  Until: 24:00,                           !- Field 12
  1,                                      !- Field 13
  For: Saturdays,                         !- Field 14
  Until: 24:00,                           !- Field 15
  1,                                      !- Field 16
  For: Sundays,                           !- Field 17
  Until: 24:00,                           !- Field 18
  1,                                      !- Field 19
  For: AllOtherDays,                      !- Field 20
  Until 24:00,                            !- Field 21
  0;                                      !- Field 22

OS:ScheduleTypeLimits,
  {8b1eb7ab-53d8-4a72-80cd-d8ad3ee1a5aa}, !- Handle
  Fraction,                               !- Name
  0,                                      !- Lower Limit Value
  1,                                      !- Upper Limit Value
  Continuous;                             !- Numeric Type

OS:ShadingSurface,
  {9ce2252d-4f41-4b1d-9b2d-b79d5bd2ed16}, !- Handle
  21,                                     !- Name
  ,                                       !- Construction Name
  {e44505a7-4a07-428b-a185-95bc9cf537a1}, !- Shading Surface Group Name
  ,                                       !- Transmittance Schedule Name
  ,                                       !- Number of Vertices
  11.096753, -1.701216, 2.51372,          !- X,Y,Z Vertex 1 {m}
  11.096753, -1.853616, 2.51372,          !- X,Y,Z Vertex 2 {m}
  10.944353, -1.85361599999998, 2.51372,  !- X,Y,Z Vertex 3 {m}
  10.944353, -1.701216, 2.51372;          !- X,Y,Z Vertex 4 {m}

OS:ShadingSurface,
  {e842d6ec-5a07-420f-ba85-c4724c2d72bb}, !- Handle
  111,                                    !- Name
  ,                                       !- Construction Name
  {e44505a7-4a07-428b-a185-95bc9cf537a1}, !- Shading Surface Group Name
  ,                                       !- Transmittance Schedule Name
  ,                                       !- Number of Vertices
  -4.2926, 10.738663, 2.697692,           !- X,Y,Z Vertex 1 {m}
  -4.2926, 10.210801, 2.697692,           !- X,Y,Z Vertex 2 {m}
  -12.827, 10.210801, 2.697692,           !- X,Y,Z Vertex 3 {m}
  -12.827, 10.738663, 2.697692;           !- X,Y,Z Vertex 4 {m}

OS:ScheduleTypeLimits,
  {34e2ffdd-6e03-40ed-a399-ff87784e7d63}, !- Handle
  ActivityLevel,                          !- Name
  0,                                      !- Lower Limit Value
  ,                                       !- Upper Limit Value
  Continuous,                             !- Numeric Type
  activitylevel;                          !- Unit Type

OS:Schedule:Compact,
  {320759ae-043b-482f-99bd-82a2914fdafd}, !- Handle
  Printer,                                !- Name
  {8b1eb7ab-53d8-4a72-80cd-d8ad3ee1a5aa}, !- Schedule Type Limits Name
  Through: 12/31,                         !- Field 1
  For: Mondays,                           !- Field 2
  Until: 24:00,                           !- Field 3
  1,                                      !- Field 4
  For: Tuesdays Thursdays,                !- Field 5
  Until: 24:00,                           !- Field 6
  1,                                      !- Field 7
  For: Wednesdays,                        !- Field 8
  Until: 24:00,                           !- Field 9
  1,                                      !- Field 10
  For: Fridays,                           !- Field 11
  Until: 24:00,                           !- Field 12
  1,                                      !- Field 13
  For: Saturdays,                         !- Field 14
  Until: 24:00,                           !- Field 15